#AM1  Opt

  Test of guassian semiempirical code

0   1
   6     -1.9590        0.1020        0.7950 
   6     -1.2490        0.6020       -0.3030 
   6     -2.0710        0.8650        1.9630 
   6     -0.6460        1.8630       -0.2340 
   6     -1.4720        2.1290        2.0310 
   6     -0.7590        2.6270        0.9340 
   1     -1.5580        2.7190        2.9310 
  16     -2.7820        0.3650        3.0600 
   1     -3.5410        0.9790        3.2740 
   1     -0.7870       -0.0430       -0.9380 
   1      0.3730        2.0450       -0.7840 
   1     -0.0920        3.5780        0.7810 
   1     -2.3790       -0.9160        0.9010 

